[General]
network = partial_mesh
sim-time-limit = 6ms
record-eventlog = false
**.result-recording-modes = all
**.cmdenv-log-level = off

*.*.eth[*].bitrate = 1Gbps

**.interFrameGapInserter.duration = 0s

**.visualizer.interfaceTableVisualizer.displayInterfaceTables = true

**.crcMode = "computed"
**.fcsMode = "computed"
*.es_*.hasFramePreemption = true
*.es_*.eth[*].macLayer.queue.typename = ""
*.es_*.eth[*].macLayer.expressMacLayer.queue.typename = "Ieee8021qTimeAwareShaper"
*.es_*.eth[*].macLayer.preemptableMacLayer.queue.typename = "Ieee8021qTimeAwareShaper"
*.es_*.eth[*].macLayer.outboundClassifier.classifierClass = "inet::PacketPcpIndClassifier"
*.s_*.hasFramePreemption = true
*.s_*.eth[*].macLayer.queue.typename = ""
*.s_*.eth[*].macLayer.expressMacLayer.queue.typename = "Ieee8021qTimeAwareShaper"
*.s_*.eth[*].macLayer.preemptableMacLayer.queue.typename = "Ieee8021qTimeAwareShaper"
*.s_*.eth[*].macLayer.outboundClassifier.classifierClass = "inet::PacketPcpIndClassifier"

*.s_1.eth[1].macLayer.expressMacLayer.queue.queue[0].typename = "r438PacketQueue"
*.s_1.eth[1].macLayer.expressMacLayer.queue.queue[0].round_number = 2
*.s_1.eth[1].macLayer.expressMacLayer.queue.queue[1].typename = "r438PacketQueue"
*.s_1.eth[1].macLayer.expressMacLayer.queue.queue[1].round_number = 2
*.s_1.eth[2].macLayer.expressMacLayer.queue.queue[0].typename = "r438PacketQueue"
*.s_1.eth[2].macLayer.expressMacLayer.queue.queue[0].round_number = 2
*.s_1.eth[2].macLayer.expressMacLayer.queue.queue[1].typename = "r438PacketQueue"
*.s_1.eth[2].macLayer.expressMacLayer.queue.queue[1].round_number = 2
*.s_4.eth[0].macLayer.expressMacLayer.queue.queue[0].typename = "r438PacketQueue"
*.s_4.eth[0].macLayer.expressMacLayer.queue.queue[0].round_number = 2
*.s_4.eth[0].macLayer.expressMacLayer.queue.queue[1].typename = "r438PacketQueue"
*.s_4.eth[0].macLayer.expressMacLayer.queue.queue[1].round_number = 2
*.s_4.eth[2].macLayer.expressMacLayer.queue.queue[0].typename = "r438PacketQueue"
*.s_4.eth[2].macLayer.expressMacLayer.queue.queue[0].round_number = 2
*.s_4.eth[2].macLayer.expressMacLayer.queue.queue[1].typename = "r438PacketQueue"
*.s_4.eth[2].macLayer.expressMacLayer.queue.queue[1].round_number = 2
*.s_5.eth[1].macLayer.expressMacLayer.queue.queue[0].typename = "r438PacketQueue"
*.s_5.eth[1].macLayer.expressMacLayer.queue.queue[0].round_number = 2
*.s_5.eth[1].macLayer.expressMacLayer.queue.queue[1].typename = "r438PacketQueue"
*.s_5.eth[1].macLayer.expressMacLayer.queue.queue[1].round_number = 2
*.s_5.eth[2].macLayer.expressMacLayer.queue.queue[0].typename = "r438PacketQueue"
*.s_5.eth[2].macLayer.expressMacLayer.queue.queue[0].round_number = 2
*.s_5.eth[2].macLayer.expressMacLayer.queue.queue[1].typename = "r438PacketQueue"
*.s_5.eth[2].macLayer.expressMacLayer.queue.queue[1].round_number = 2
*.s_5.eth[3].macLayer.expressMacLayer.queue.queue[0].typename = "r438PacketQueue"
*.s_5.eth[3].macLayer.expressMacLayer.queue.queue[0].round_number = 2
*.s_5.eth[3].macLayer.expressMacLayer.queue.queue[1].typename = "r438PacketQueue"
*.s_5.eth[3].macLayer.expressMacLayer.queue.queue[1].round_number = 2
*.s_8.eth[0].macLayer.expressMacLayer.queue.queue[0].typename = "r438PacketQueue"
*.s_8.eth[0].macLayer.expressMacLayer.queue.queue[0].round_number = 2
*.s_8.eth[0].macLayer.expressMacLayer.queue.queue[1].typename = "r438PacketQueue"
*.s_8.eth[0].macLayer.expressMacLayer.queue.queue[1].round_number = 2
*.s_8.eth[2].macLayer.expressMacLayer.queue.queue[0].typename = "r438PacketQueue"
*.s_8.eth[2].macLayer.expressMacLayer.queue.queue[0].round_number = 2
*.s_8.eth[2].macLayer.expressMacLayer.queue.queue[1].typename = "r438PacketQueue"
*.s_8.eth[2].macLayer.expressMacLayer.queue.queue[1].round_number = 2
*.s_8.eth[3].macLayer.expressMacLayer.queue.queue[0].typename = "r438PacketQueue"
*.s_8.eth[3].macLayer.expressMacLayer.queue.queue[0].round_number = 2
*.s_8.eth[3].macLayer.expressMacLayer.queue.queue[1].typename = "r438PacketQueue"
*.s_8.eth[3].macLayer.expressMacLayer.queue.queue[1].round_number = 2
*.s_9.eth[1].macLayer.expressMacLayer.queue.queue[0].typename = "r438PacketQueue"
*.s_9.eth[1].macLayer.expressMacLayer.queue.queue[0].round_number = 2
*.s_9.eth[1].macLayer.expressMacLayer.queue.queue[1].typename = "r438PacketQueue"
*.s_9.eth[1].macLayer.expressMacLayer.queue.queue[1].round_number = 2
*.s_9.eth[2].macLayer.expressMacLayer.queue.queue[0].typename = "r438PacketQueue"
*.s_9.eth[2].macLayer.expressMacLayer.queue.queue[0].round_number = 2
*.s_9.eth[2].macLayer.expressMacLayer.queue.queue[1].typename = "r438PacketQueue"
*.s_9.eth[2].macLayer.expressMacLayer.queue.queue[1].round_number = 2
*.s_12.eth[0].macLayer.expressMacLayer.queue.queue[0].typename = "r438PacketQueue"
*.s_12.eth[0].macLayer.expressMacLayer.queue.queue[0].round_number = 2
*.s_12.eth[0].macLayer.expressMacLayer.queue.queue[1].typename = "r438PacketQueue"
*.s_12.eth[0].macLayer.expressMacLayer.queue.queue[1].round_number = 2
*.s_12.eth[2].macLayer.expressMacLayer.queue.queue[0].typename = "r438PacketQueue"
*.s_12.eth[2].macLayer.expressMacLayer.queue.queue[0].round_number = 2
*.s_12.eth[2].macLayer.expressMacLayer.queue.queue[1].typename = "r438PacketQueue"
*.s_12.eth[2].macLayer.expressMacLayer.queue.queue[1].round_number = 2

partial_mesh.es_*.hasEgressTrafficShaping = true

partial_mesh.s_*.hasIncomingStreams = true
partial_mesh.s_*.hasOutgoingStreams = true
partial_mesh.s_*.hasEgressTrafficShaping = true

partial_mesh.es_6.app[0].typename = "UdpSourceApp"
partial_mesh.es_6.app[0].display-name = "tsn-0"
partial_mesh.es_6.app[0].io.destAddress = "es_2"
partial_mesh.es_6.app[0].io.destPort = 5000
partial_mesh.es_6.app[0].source.packetNameFormat = "%M-%m-%c"
partial_mesh.es_6.app[0].source.packetLength = 40B
partial_mesh.es_6.app[0].source.productionInterval = 100us
partial_mesh.es_6.app[0].source.initialProductionOffset = 0us
partial_mesh.es_2.app[0].typename = "UdpSinkApp"
partial_mesh.es_2.app[0].display-name = "tsn-0"
partial_mesh.es_2.app[0].io.localPort = 5000

partial_mesh.es_5.app[0].typename = "UdpSourceApp"
partial_mesh.es_5.app[0].display-name = "tsn-1"
partial_mesh.es_5.app[0].io.destAddress = "es_6"
partial_mesh.es_5.app[0].io.destPort = 5001
partial_mesh.es_5.app[0].source.packetNameFormat = "%M-%m-%c"
partial_mesh.es_5.app[0].source.packetLength = 50B
partial_mesh.es_5.app[0].source.productionInterval = 2000us
partial_mesh.es_5.app[0].source.initialProductionOffset = 13us
partial_mesh.es_6.app[1].typename = "UdpSinkApp"
partial_mesh.es_6.app[1].display-name = "tsn-1"
partial_mesh.es_6.app[1].io.localPort = 5001

partial_mesh.es_4.app[0].typename = "UdpSourceApp"
partial_mesh.es_4.app[0].display-name = "tsn-2"
partial_mesh.es_4.app[0].io.destAddress = "es_3"
partial_mesh.es_4.app[0].io.destPort = 5002
partial_mesh.es_4.app[0].source.packetNameFormat = "%M-%m-%c"
partial_mesh.es_4.app[0].source.packetLength = 50B
partial_mesh.es_4.app[0].source.productionInterval = 1000us
partial_mesh.es_4.app[0].source.initialProductionOffset = 16us
partial_mesh.es_3.app[0].typename = "UdpSinkApp"
partial_mesh.es_3.app[0].display-name = "tsn-2"
partial_mesh.es_3.app[0].io.localPort = 5002

partial_mesh.es_4.app[1].typename = "UdpSourceApp"
partial_mesh.es_4.app[1].display-name = "tsn-3"
partial_mesh.es_4.app[1].io.destAddress = "es_3"
partial_mesh.es_4.app[1].io.destPort = 5003
partial_mesh.es_4.app[1].source.packetNameFormat = "%M-%m-%c"
partial_mesh.es_4.app[1].source.packetLength = 50B
partial_mesh.es_4.app[1].source.productionInterval = 200us
partial_mesh.es_4.app[1].source.initialProductionOffset = 6us
partial_mesh.es_3.app[1].typename = "UdpSinkApp"
partial_mesh.es_3.app[1].display-name = "tsn-3"
partial_mesh.es_3.app[1].io.localPort = 5003

partial_mesh.es_1.app[0].typename = "UdpSourceApp"
partial_mesh.es_1.app[0].display-name = "tsn-4"
partial_mesh.es_1.app[0].io.destAddress = "es_4"
partial_mesh.es_1.app[0].io.destPort = 5004
partial_mesh.es_1.app[0].source.packetNameFormat = "%M-%m-%c"
partial_mesh.es_1.app[0].source.packetLength = 80B
partial_mesh.es_1.app[0].source.productionInterval = 200us
partial_mesh.es_1.app[0].source.initialProductionOffset = 1us
partial_mesh.es_4.app[2].typename = "UdpSinkApp"
partial_mesh.es_4.app[2].display-name = "tsn-4"
partial_mesh.es_4.app[2].io.localPort = 5004

partial_mesh.es_3.app[2].typename = "UdpSourceApp"
partial_mesh.es_3.app[2].display-name = "tsn-5"
partial_mesh.es_3.app[2].io.destAddress = "es_6"
partial_mesh.es_3.app[2].io.destPort = 5005
partial_mesh.es_3.app[2].source.packetNameFormat = "%M-%m-%c"
partial_mesh.es_3.app[2].source.packetLength = 70B
partial_mesh.es_3.app[2].source.productionInterval = 400us
partial_mesh.es_3.app[2].source.initialProductionOffset = 8us
partial_mesh.es_6.app[2].typename = "UdpSinkApp"
partial_mesh.es_6.app[2].display-name = "tsn-5"
partial_mesh.es_6.app[2].io.localPort = 5005

partial_mesh.es_1.app[1].typename = "UdpSourceApp"
partial_mesh.es_1.app[1].display-name = "tsn-6"
partial_mesh.es_1.app[1].io.destAddress = "es_3"
partial_mesh.es_1.app[1].io.destPort = 5006
partial_mesh.es_1.app[1].source.packetNameFormat = "%M-%m-%c"
partial_mesh.es_1.app[1].source.packetLength = 40B
partial_mesh.es_1.app[1].source.productionInterval = 200us
partial_mesh.es_1.app[1].source.initialProductionOffset = 7us
partial_mesh.es_3.app[3].typename = "UdpSinkApp"
partial_mesh.es_3.app[3].display-name = "tsn-6"
partial_mesh.es_3.app[3].io.localPort = 5006

partial_mesh.es_3.app[4].typename = "UdpSourceApp"
partial_mesh.es_3.app[4].display-name = "tsn-7"
partial_mesh.es_3.app[4].io.destAddress = "es_2"
partial_mesh.es_3.app[4].io.destPort = 5007
partial_mesh.es_3.app[4].source.packetNameFormat = "%M-%m-%c"
partial_mesh.es_3.app[4].source.packetLength = 50B
partial_mesh.es_3.app[4].source.productionInterval = 500us
partial_mesh.es_3.app[4].source.initialProductionOffset = 18us
partial_mesh.es_2.app[1].typename = "UdpSinkApp"
partial_mesh.es_2.app[1].display-name = "tsn-7"
partial_mesh.es_2.app[1].io.localPort = 5007

partial_mesh.es_2.app[2].typename = "UdpSourceApp"
partial_mesh.es_2.app[2].display-name = "tsn-8"
partial_mesh.es_2.app[2].io.destAddress = "es_5"
partial_mesh.es_2.app[2].io.destPort = 5008
partial_mesh.es_2.app[2].source.packetNameFormat = "%M-%m-%c"
partial_mesh.es_2.app[2].source.packetLength = 90B
partial_mesh.es_2.app[2].source.productionInterval = 500us
partial_mesh.es_2.app[2].source.initialProductionOffset = 10us
partial_mesh.es_5.app[1].typename = "UdpSinkApp"
partial_mesh.es_5.app[1].display-name = "tsn-8"
partial_mesh.es_5.app[1].io.localPort = 5008

partial_mesh.es_3.app[5].typename = "UdpSourceApp"
partial_mesh.es_3.app[5].display-name = "tsn-9"
partial_mesh.es_3.app[5].io.destAddress = "es_6"
partial_mesh.es_3.app[5].io.destPort = 5009
partial_mesh.es_3.app[5].source.packetNameFormat = "%M-%m-%c"
partial_mesh.es_3.app[5].source.packetLength = 90B
partial_mesh.es_3.app[5].source.productionInterval = 1000us
partial_mesh.es_3.app[5].source.initialProductionOffset = 24us
partial_mesh.es_6.app[3].typename = "UdpSinkApp"
partial_mesh.es_6.app[3].display-name = "tsn-9"
partial_mesh.es_6.app[3].io.localPort = 5009

partial_mesh.es_4.app[3].typename = "UdpSourceApp"
partial_mesh.es_4.app[3].display-name = "tsn-10"
partial_mesh.es_4.app[3].io.destAddress = "es_2"
partial_mesh.es_4.app[3].io.destPort = 5010
partial_mesh.es_4.app[3].source.packetNameFormat = "%M-%m-%c"
partial_mesh.es_4.app[3].source.packetLength = 30B
partial_mesh.es_4.app[3].source.productionInterval = 200us
partial_mesh.es_4.app[3].source.initialProductionOffset = 8us
partial_mesh.es_2.app[3].typename = "UdpSinkApp"
partial_mesh.es_2.app[3].display-name = "tsn-10"
partial_mesh.es_2.app[3].io.localPort = 5010

partial_mesh.es_2.app[4].typename = "UdpSourceApp"
partial_mesh.es_2.app[4].display-name = "tsn-11"
partial_mesh.es_2.app[4].io.destAddress = "es_1"
partial_mesh.es_2.app[4].io.destPort = 5011
partial_mesh.es_2.app[4].source.packetNameFormat = "%M-%m-%c"
partial_mesh.es_2.app[4].source.packetLength = 60B
partial_mesh.es_2.app[4].source.productionInterval = 100us
partial_mesh.es_2.app[4].source.initialProductionOffset = 0us
partial_mesh.es_1.app[2].typename = "UdpSinkApp"
partial_mesh.es_1.app[2].display-name = "tsn-11"
partial_mesh.es_1.app[2].io.localPort = 5011

partial_mesh.es_6.app[4].typename = "UdpSourceApp"
partial_mesh.es_6.app[4].display-name = "tsn-12"
partial_mesh.es_6.app[4].io.destAddress = "es_4"
partial_mesh.es_6.app[4].io.destPort = 5012
partial_mesh.es_6.app[4].source.packetNameFormat = "%M-%m-%c"
partial_mesh.es_6.app[4].source.packetLength = 50B
partial_mesh.es_6.app[4].source.productionInterval = 200us
partial_mesh.es_6.app[4].source.initialProductionOffset = 6us
partial_mesh.es_4.app[4].typename = "UdpSinkApp"
partial_mesh.es_4.app[4].display-name = "tsn-12"
partial_mesh.es_4.app[4].io.localPort = 5012

partial_mesh.es_2.app[5].typename = "UdpSourceApp"
partial_mesh.es_2.app[5].display-name = "tsn-13"
partial_mesh.es_2.app[5].io.destAddress = "es_1"
partial_mesh.es_2.app[5].io.destPort = 5013
partial_mesh.es_2.app[5].source.packetNameFormat = "%M-%m-%c"
partial_mesh.es_2.app[5].source.packetLength = 60B
partial_mesh.es_2.app[5].source.productionInterval = 500us
partial_mesh.es_2.app[5].source.initialProductionOffset = 12us
partial_mesh.es_1.app[3].typename = "UdpSinkApp"
partial_mesh.es_1.app[3].display-name = "tsn-13"
partial_mesh.es_1.app[3].io.localPort = 5013

partial_mesh.es_3.app[6].typename = "UdpSourceApp"
partial_mesh.es_3.app[6].display-name = "tsn-14"
partial_mesh.es_3.app[6].io.destAddress = "es_2"
partial_mesh.es_3.app[6].io.destPort = 5014
partial_mesh.es_3.app[6].source.packetNameFormat = "%M-%m-%c"
partial_mesh.es_3.app[6].source.packetLength = 100B
partial_mesh.es_3.app[6].source.productionInterval = 400us
partial_mesh.es_3.app[6].source.initialProductionOffset = 10us
partial_mesh.es_2.app[6].typename = "UdpSinkApp"
partial_mesh.es_2.app[6].display-name = "tsn-14"
partial_mesh.es_2.app[6].io.localPort = 5014

partial_mesh.es_3.app[7].typename = "UdpSourceApp"
partial_mesh.es_3.app[7].display-name = "tsn-15"
partial_mesh.es_3.app[7].io.destAddress = "es_5"
partial_mesh.es_3.app[7].io.destPort = 5015
partial_mesh.es_3.app[7].source.packetNameFormat = "%M-%m-%c"
partial_mesh.es_3.app[7].source.packetLength = 80B
partial_mesh.es_3.app[7].source.productionInterval = 400us
partial_mesh.es_3.app[7].source.initialProductionOffset = 16us
partial_mesh.es_5.app[2].typename = "UdpSinkApp"
partial_mesh.es_5.app[2].display-name = "tsn-15"
partial_mesh.es_5.app[2].io.localPort = 5015

partial_mesh.es_6.app[5].typename = "UdpSourceApp"
partial_mesh.es_6.app[5].display-name = "tsn-16"
partial_mesh.es_6.app[5].io.destAddress = "es_2"
partial_mesh.es_6.app[5].io.destPort = 5016
partial_mesh.es_6.app[5].source.packetNameFormat = "%M-%m-%c"
partial_mesh.es_6.app[5].source.packetLength = 30B
partial_mesh.es_6.app[5].source.productionInterval = 100us
partial_mesh.es_6.app[5].source.initialProductionOffset = 1us
partial_mesh.es_2.app[7].typename = "UdpSinkApp"
partial_mesh.es_2.app[7].display-name = "tsn-16"
partial_mesh.es_2.app[7].io.localPort = 5016

partial_mesh.es_1.app[4].typename = "UdpSourceApp"
partial_mesh.es_1.app[4].display-name = "tsn-17"
partial_mesh.es_1.app[4].io.destAddress = "es_3"
partial_mesh.es_1.app[4].io.destPort = 5017
partial_mesh.es_1.app[4].source.packetNameFormat = "%M-%m-%c"
partial_mesh.es_1.app[4].source.packetLength = 50B
partial_mesh.es_1.app[4].source.productionInterval = 400us
partial_mesh.es_1.app[4].source.initialProductionOffset = 8us
partial_mesh.es_3.app[8].typename = "UdpSinkApp"
partial_mesh.es_3.app[8].display-name = "tsn-17"
partial_mesh.es_3.app[8].io.localPort = 5017

partial_mesh.es_3.app[9].typename = "UdpSourceApp"
partial_mesh.es_3.app[9].display-name = "tsn-18"
partial_mesh.es_3.app[9].io.destAddress = "es_4"
partial_mesh.es_3.app[9].io.destPort = 5018
partial_mesh.es_3.app[9].source.packetNameFormat = "%M-%m-%c"
partial_mesh.es_3.app[9].source.packetLength = 60B
partial_mesh.es_3.app[9].source.productionInterval = 1000us
partial_mesh.es_3.app[9].source.initialProductionOffset = 26us
partial_mesh.es_4.app[5].typename = "UdpSinkApp"
partial_mesh.es_4.app[5].display-name = "tsn-18"
partial_mesh.es_4.app[5].io.localPort = 5018

partial_mesh.es_1.app[5].typename = "UdpSourceApp"
partial_mesh.es_1.app[5].display-name = "tsn-19"
partial_mesh.es_1.app[5].io.destAddress = "es_5"
partial_mesh.es_1.app[5].io.destPort = 5019
partial_mesh.es_1.app[5].source.packetNameFormat = "%M-%m-%c"
partial_mesh.es_1.app[5].source.packetLength = 30B
partial_mesh.es_1.app[5].source.productionInterval = 500us
partial_mesh.es_1.app[5].source.initialProductionOffset = 13us
partial_mesh.es_5.app[3].typename = "UdpSinkApp"
partial_mesh.es_5.app[3].display-name = "tsn-19"
partial_mesh.es_5.app[3].io.localPort = 5019

partial_mesh.es_6.app[6].typename = "UdpSourceApp"
partial_mesh.es_6.app[6].display-name = "tsn-20"
partial_mesh.es_6.app[6].io.destAddress = "es_5"
partial_mesh.es_6.app[6].io.destPort = 5020
partial_mesh.es_6.app[6].source.packetNameFormat = "%M-%m-%c"
partial_mesh.es_6.app[6].source.packetLength = 70B
partial_mesh.es_6.app[6].source.productionInterval = 2000us
partial_mesh.es_6.app[6].source.initialProductionOffset = 25us
partial_mesh.es_5.app[4].typename = "UdpSinkApp"
partial_mesh.es_5.app[4].display-name = "tsn-20"
partial_mesh.es_5.app[4].io.localPort = 5020

partial_mesh.es_1.app[6].typename = "UdpSourceApp"
partial_mesh.es_1.app[6].display-name = "tsn-21"
partial_mesh.es_1.app[6].io.destAddress = "es_6"
partial_mesh.es_1.app[6].io.destPort = 5021
partial_mesh.es_1.app[6].source.packetNameFormat = "%M-%m-%c"
partial_mesh.es_1.app[6].source.packetLength = 90B
partial_mesh.es_1.app[6].source.productionInterval = 1000us
partial_mesh.es_1.app[6].source.initialProductionOffset = 16us
partial_mesh.es_6.app[7].typename = "UdpSinkApp"
partial_mesh.es_6.app[7].display-name = "tsn-21"
partial_mesh.es_6.app[7].io.localPort = 5021

partial_mesh.es_2.app[8].typename = "UdpSourceApp"
partial_mesh.es_2.app[8].display-name = "tsn-23"
partial_mesh.es_2.app[8].io.destAddress = "es_4"
partial_mesh.es_2.app[8].io.destPort = 5023
partial_mesh.es_2.app[8].source.packetNameFormat = "%M-%m-%c"
partial_mesh.es_2.app[8].source.packetLength = 30B
partial_mesh.es_2.app[8].source.productionInterval = 400us
partial_mesh.es_2.app[8].source.initialProductionOffset = 9us
partial_mesh.es_4.app[6].typename = "UdpSinkApp"
partial_mesh.es_4.app[6].display-name = "tsn-23"
partial_mesh.es_4.app[6].io.localPort = 5023

partial_mesh.es_6.app[8].typename = "UdpSourceApp"
partial_mesh.es_6.app[8].display-name = "tsn-24"
partial_mesh.es_6.app[8].io.destAddress = "es_3"
partial_mesh.es_6.app[8].io.destPort = 5024
partial_mesh.es_6.app[8].source.packetNameFormat = "%M-%m-%c"
partial_mesh.es_6.app[8].source.packetLength = 50B
partial_mesh.es_6.app[8].source.productionInterval = 500us
partial_mesh.es_6.app[8].source.initialProductionOffset = 14us
partial_mesh.es_3.app[10].typename = "UdpSinkApp"
partial_mesh.es_3.app[10].display-name = "tsn-24"
partial_mesh.es_3.app[10].io.localPort = 5024

partial_mesh.es_4.app[7].typename = "UdpSourceApp"
partial_mesh.es_4.app[7].display-name = "tsn-25"
partial_mesh.es_4.app[7].io.destAddress = "es_3"
partial_mesh.es_4.app[7].io.destPort = 5025
partial_mesh.es_4.app[7].source.packetNameFormat = "%M-%m-%c"
partial_mesh.es_4.app[7].source.packetLength = 70B
partial_mesh.es_4.app[7].source.productionInterval = 400us
partial_mesh.es_4.app[7].source.initialProductionOffset = 12us
partial_mesh.es_3.app[11].typename = "UdpSinkApp"
partial_mesh.es_3.app[11].display-name = "tsn-25"
partial_mesh.es_3.app[11].io.localPort = 5025

partial_mesh.es_2.app[9].typename = "UdpSourceApp"
partial_mesh.es_2.app[9].display-name = "tsn-26"
partial_mesh.es_2.app[9].io.destAddress = "es_3"
partial_mesh.es_2.app[9].io.destPort = 5026
partial_mesh.es_2.app[9].source.packetNameFormat = "%M-%m-%c"
partial_mesh.es_2.app[9].source.packetLength = 70B
partial_mesh.es_2.app[9].source.productionInterval = 200us
partial_mesh.es_2.app[9].source.initialProductionOffset = 4us
partial_mesh.es_3.app[12].typename = "UdpSinkApp"
partial_mesh.es_3.app[12].display-name = "tsn-26"
partial_mesh.es_3.app[12].io.localPort = 5026

partial_mesh.es_4.app[8].typename = "UdpSourceApp"
partial_mesh.es_4.app[8].display-name = "tsn-27"
partial_mesh.es_4.app[8].io.destAddress = "es_6"
partial_mesh.es_4.app[8].io.destPort = 5027
partial_mesh.es_4.app[8].source.packetNameFormat = "%M-%m-%c"
partial_mesh.es_4.app[8].source.packetLength = 40B
partial_mesh.es_4.app[8].source.productionInterval = 200us
partial_mesh.es_4.app[8].source.initialProductionOffset = 9us
partial_mesh.es_6.app[9].typename = "UdpSinkApp"
partial_mesh.es_6.app[9].display-name = "tsn-27"
partial_mesh.es_6.app[9].io.localPort = 5027

partial_mesh.es_1.app[7].typename = "UdpSourceApp"
partial_mesh.es_1.app[7].display-name = "tsn-28"
partial_mesh.es_1.app[7].io.destAddress = "es_2"
partial_mesh.es_1.app[7].io.destPort = 5028
partial_mesh.es_1.app[7].source.packetNameFormat = "%M-%m-%c"
partial_mesh.es_1.app[7].source.packetLength = 100B
partial_mesh.es_1.app[7].source.productionInterval = 2000us
partial_mesh.es_1.app[7].source.initialProductionOffset = 18us
partial_mesh.es_2.app[10].typename = "UdpSinkApp"
partial_mesh.es_2.app[10].display-name = "tsn-28"
partial_mesh.es_2.app[10].io.localPort = 5028

partial_mesh.es_1.app[8].typename = "UdpSourceApp"
partial_mesh.es_1.app[8].display-name = "tsn-29"
partial_mesh.es_1.app[8].io.destAddress = "es_3"
partial_mesh.es_1.app[8].io.destPort = 5029
partial_mesh.es_1.app[8].source.packetNameFormat = "%M-%m-%c"
partial_mesh.es_1.app[8].source.packetLength = 70B
partial_mesh.es_1.app[8].source.productionInterval = 400us
partial_mesh.es_1.app[8].source.initialProductionOffset = 10us
partial_mesh.es_3.app[13].typename = "UdpSinkApp"
partial_mesh.es_3.app[13].display-name = "tsn-29"
partial_mesh.es_3.app[13].io.localPort = 5029

partial_mesh.es_6.app[10].typename = "UdpSourceApp"
partial_mesh.es_6.app[10].display-name = "tsn-30"
partial_mesh.es_6.app[10].io.destAddress = "es_4"
partial_mesh.es_6.app[10].io.destPort = 5030
partial_mesh.es_6.app[10].source.packetNameFormat = "%M-%m-%c"
partial_mesh.es_6.app[10].source.packetLength = 90B
partial_mesh.es_6.app[10].source.productionInterval = 2000us
partial_mesh.es_6.app[10].source.initialProductionOffset = 29us
partial_mesh.es_4.app[9].typename = "UdpSinkApp"
partial_mesh.es_4.app[9].display-name = "tsn-30"
partial_mesh.es_4.app[9].io.localPort = 5030

partial_mesh.es_4.app[10].typename = "UdpSourceApp"
partial_mesh.es_4.app[10].display-name = "tsn-31"
partial_mesh.es_4.app[10].io.destAddress = "es_2"
partial_mesh.es_4.app[10].io.destPort = 5031
partial_mesh.es_4.app[10].source.packetNameFormat = "%M-%m-%c"
partial_mesh.es_4.app[10].source.packetLength = 70B
partial_mesh.es_4.app[10].source.productionInterval = 200us
partial_mesh.es_4.app[10].source.initialProductionOffset = 10us
partial_mesh.es_2.app[11].typename = "UdpSinkApp"
partial_mesh.es_2.app[11].display-name = "tsn-31"
partial_mesh.es_2.app[11].io.localPort = 5031

partial_mesh.es_6.app[11].typename = "UdpSourceApp"
partial_mesh.es_6.app[11].display-name = "tsn-32"
partial_mesh.es_6.app[11].io.destAddress = "es_5"
partial_mesh.es_6.app[11].io.destPort = 5032
partial_mesh.es_6.app[11].source.packetNameFormat = "%M-%m-%c"
partial_mesh.es_6.app[11].source.packetLength = 70B
partial_mesh.es_6.app[11].source.productionInterval = 400us
partial_mesh.es_6.app[11].source.initialProductionOffset = 10us
partial_mesh.es_5.app[5].typename = "UdpSinkApp"
partial_mesh.es_5.app[5].display-name = "tsn-32"
partial_mesh.es_5.app[5].io.localPort = 5032

partial_mesh.es_5.app[6].typename = "UdpSourceApp"
partial_mesh.es_5.app[6].display-name = "tsn-33"
partial_mesh.es_5.app[6].io.destAddress = "es_4"
partial_mesh.es_5.app[6].io.destPort = 5033
partial_mesh.es_5.app[6].source.packetNameFormat = "%M-%m-%c"
partial_mesh.es_5.app[6].source.packetLength = 60B
partial_mesh.es_5.app[6].source.productionInterval = 500us
partial_mesh.es_5.app[6].source.initialProductionOffset = 6us
partial_mesh.es_4.app[11].typename = "UdpSinkApp"
partial_mesh.es_4.app[11].display-name = "tsn-33"
partial_mesh.es_4.app[11].io.localPort = 5033

partial_mesh.es_5.app[7].typename = "UdpSourceApp"
partial_mesh.es_5.app[7].display-name = "tsn-34"
partial_mesh.es_5.app[7].io.destAddress = "es_3"
partial_mesh.es_5.app[7].io.destPort = 5034
partial_mesh.es_5.app[7].source.packetNameFormat = "%M-%m-%c"
partial_mesh.es_5.app[7].source.packetLength = 50B
partial_mesh.es_5.app[7].source.productionInterval = 200us
partial_mesh.es_5.app[7].source.initialProductionOffset = 2us
partial_mesh.es_3.app[14].typename = "UdpSinkApp"
partial_mesh.es_3.app[14].display-name = "tsn-34"
partial_mesh.es_3.app[14].io.localPort = 5034

partial_mesh.es_3.app[15].typename = "UdpSourceApp"
partial_mesh.es_3.app[15].display-name = "tsn-35"
partial_mesh.es_3.app[15].io.destAddress = "es_2"
partial_mesh.es_3.app[15].io.destPort = 5035
partial_mesh.es_3.app[15].source.packetNameFormat = "%M-%m-%c"
partial_mesh.es_3.app[15].source.packetLength = 50B
partial_mesh.es_3.app[15].source.productionInterval = 100us
partial_mesh.es_3.app[15].source.initialProductionOffset = 0us
partial_mesh.es_2.app[12].typename = "UdpSinkApp"
partial_mesh.es_2.app[12].display-name = "tsn-35"
partial_mesh.es_2.app[12].io.localPort = 5035

partial_mesh.es_6.app[12].typename = "UdpSourceApp"
partial_mesh.es_6.app[12].display-name = "tsn-36"
partial_mesh.es_6.app[12].io.destAddress = "es_1"
partial_mesh.es_6.app[12].io.destPort = 5036
partial_mesh.es_6.app[12].source.packetNameFormat = "%M-%m-%c"
partial_mesh.es_6.app[12].source.packetLength = 40B
partial_mesh.es_6.app[12].source.productionInterval = 2000us
partial_mesh.es_6.app[12].source.initialProductionOffset = 24us
partial_mesh.es_1.app[9].typename = "UdpSinkApp"
partial_mesh.es_1.app[9].display-name = "tsn-36"
partial_mesh.es_1.app[9].io.localPort = 5036

partial_mesh.es_6.app[13].typename = "UdpSourceApp"
partial_mesh.es_6.app[13].display-name = "tsn-37"
partial_mesh.es_6.app[13].io.destAddress = "es_4"
partial_mesh.es_6.app[13].io.destPort = 5037
partial_mesh.es_6.app[13].source.packetNameFormat = "%M-%m-%c"
partial_mesh.es_6.app[13].source.packetLength = 50B
partial_mesh.es_6.app[13].source.productionInterval = 100us
partial_mesh.es_6.app[13].source.initialProductionOffset = 2us
partial_mesh.es_4.app[12].typename = "UdpSinkApp"
partial_mesh.es_4.app[12].display-name = "tsn-37"
partial_mesh.es_4.app[12].io.localPort = 5037

partial_mesh.es_5.app[8].typename = "UdpSourceApp"
partial_mesh.es_5.app[8].display-name = "tsn-38"
partial_mesh.es_5.app[8].io.destAddress = "es_2"
partial_mesh.es_5.app[8].io.destPort = 5038
partial_mesh.es_5.app[8].source.packetNameFormat = "%M-%m-%c"
partial_mesh.es_5.app[8].source.packetLength = 40B
partial_mesh.es_5.app[8].source.productionInterval = 1000us
partial_mesh.es_5.app[8].source.initialProductionOffset = 8us
partial_mesh.es_2.app[13].typename = "UdpSinkApp"
partial_mesh.es_2.app[13].display-name = "tsn-38"
partial_mesh.es_2.app[13].io.localPort = 5038

partial_mesh.es_5.app[9].typename = "UdpSourceApp"
partial_mesh.es_5.app[9].display-name = "tsn-60"
partial_mesh.es_5.app[9].io.destAddress = "es_2"
partial_mesh.es_5.app[9].io.destPort = 5060
partial_mesh.es_5.app[9].source.packetNameFormat = "%M-%m-%c"
partial_mesh.es_5.app[9].source.packetLength = 30B
partial_mesh.es_5.app[9].source.productionInterval = 400us
partial_mesh.es_5.app[9].source.initialProductionOffset = 4us
partial_mesh.es_2.app[14].typename = "UdpSinkApp"
partial_mesh.es_2.app[14].display-name = "tsn-60"
partial_mesh.es_2.app[14].io.localPort = 5060

partial_mesh.es_6.app[14].typename = "UdpSourceApp"
partial_mesh.es_6.app[14].display-name = "tsn-61"
partial_mesh.es_6.app[14].io.destAddress = "es_5"
partial_mesh.es_6.app[14].io.destPort = 5061
partial_mesh.es_6.app[14].source.packetNameFormat = "%M-%m-%c"
partial_mesh.es_6.app[14].source.packetLength = 90B
partial_mesh.es_6.app[14].source.productionInterval = 2000us
partial_mesh.es_6.app[14].source.initialProductionOffset = 27us
partial_mesh.es_5.app[10].typename = "UdpSinkApp"
partial_mesh.es_5.app[10].display-name = "tsn-61"
partial_mesh.es_5.app[10].io.localPort = 5061

partial_mesh.es_6.app[15].typename = "UdpSourceApp"
partial_mesh.es_6.app[15].display-name = "tsn-62"
partial_mesh.es_6.app[15].io.destAddress = "es_5"
partial_mesh.es_6.app[15].io.destPort = 5062
partial_mesh.es_6.app[15].source.packetNameFormat = "%M-%m-%c"
partial_mesh.es_6.app[15].source.packetLength = 80B
partial_mesh.es_6.app[15].source.productionInterval = 200us
partial_mesh.es_6.app[15].source.initialProductionOffset = 4us
partial_mesh.es_5.app[11].typename = "UdpSinkApp"
partial_mesh.es_5.app[11].display-name = "tsn-62"
partial_mesh.es_5.app[11].io.localPort = 5062

partial_mesh.es_2.app[15].typename = "UdpSourceApp"
partial_mesh.es_2.app[15].display-name = "tsn-63"
partial_mesh.es_2.app[15].io.destAddress = "es_3"
partial_mesh.es_2.app[15].io.destPort = 5063
partial_mesh.es_2.app[15].source.packetNameFormat = "%M-%m-%c"
partial_mesh.es_2.app[15].source.packetLength = 40B
partial_mesh.es_2.app[15].source.productionInterval = 200us
partial_mesh.es_2.app[15].source.initialProductionOffset = 6us
partial_mesh.es_3.app[16].typename = "UdpSinkApp"
partial_mesh.es_3.app[16].display-name = "tsn-63"
partial_mesh.es_3.app[16].io.localPort = 5063

partial_mesh.es_3.app[17].typename = "UdpSourceApp"
partial_mesh.es_3.app[17].display-name = "tsn-64"
partial_mesh.es_3.app[17].io.destAddress = "es_2"
partial_mesh.es_3.app[17].io.destPort = 5064
partial_mesh.es_3.app[17].source.packetNameFormat = "%M-%m-%c"
partial_mesh.es_3.app[17].source.packetLength = 70B
partial_mesh.es_3.app[17].source.productionInterval = 400us
partial_mesh.es_3.app[17].source.initialProductionOffset = 12us