[General]
network = partial_mesh
sim-time-limit = 5s
*.*.eth[*].bitrate = 1Gbps

**.displayGateSchedules = true
**.gateFilter = "**.eth[0].**"
**.gateScheduleVisualizer.height = 10
**.gateScheduleVisualizer.placementHint = "left"

partial_mesh.es_1.numApps = 18
partial_mesh.es_1.hasOutgoingStreams = true
partial_mesh.es_1.hasIncomingStreams = true
partial_mesh.es_2.numApps = 20
partial_mesh.es_2.hasOutgoingStreams = true
partial_mesh.es_2.hasIncomingStreams = true
partial_mesh.es_3.numApps = 21
partial_mesh.es_3.hasOutgoingStreams = true
partial_mesh.es_3.hasIncomingStreams = true
partial_mesh.es_4.numApps = 21
partial_mesh.es_4.hasOutgoingStreams = true
partial_mesh.es_4.hasIncomingStreams = true
partial_mesh.es_5.numApps = 17
partial_mesh.es_5.hasOutgoingStreams = true
partial_mesh.es_5.hasIncomingStreams = true
partial_mesh.es_6.numApps = 23
partial_mesh.es_6.hasOutgoingStreams = true
partial_mesh.es_6.hasIncomingStreams = true

partial_mesh.es_*.hasEgressTrafficShaping = true

partial_mesh.s_*.hasIncomingStreams = true
partial_mesh.s_*.hasOutgoingStreams = true
partial_mesh.s_*.hasEgressTrafficShaping = true

partial_mesh.es_6.app[0].typename = "UdpSourceApp"
partial_mesh.es_6.app[0].display-name = "TSN"
partial_mesh.es_6.app[0].io.destAddress = "es_2"
partial_mesh.es_6.app[0].io.destPort = 5000
partial_mesh.es_6.app[0].source.packetNameFormat = "%M-%m-%c"
partial_mesh.es_6.app[0].source.packetLength = 40B
partial_mesh.es_6.app[0].source.productionInterval = 100us
partial_mesh.es_2.app[0].typename = "UdpSinkApp"
partial_mesh.es_2.app[0].display-name = "TSN"
partial_mesh.es_2.app[0].io.localPort = 5000

partial_mesh.es_5.app[0].typename = "UdpSourceApp"
partial_mesh.es_5.app[0].display-name = "TSN"
partial_mesh.es_5.app[0].io.destAddress = "es_6"
partial_mesh.es_5.app[0].io.destPort = 5001
partial_mesh.es_5.app[0].source.packetNameFormat = "%M-%m-%c"
partial_mesh.es_5.app[0].source.packetLength = 50B
partial_mesh.es_5.app[0].source.productionInterval = 2000us
partial_mesh.es_6.app[1].typename = "UdpSinkApp"
partial_mesh.es_6.app[1].display-name = "TSN"
partial_mesh.es_6.app[1].io.localPort = 5001

partial_mesh.es_4.app[0].typename = "UdpSourceApp"
partial_mesh.es_4.app[0].display-name = "TSN"
partial_mesh.es_4.app[0].io.destAddress = "es_3"
partial_mesh.es_4.app[0].io.destPort = 5002
partial_mesh.es_4.app[0].source.packetNameFormat = "%M-%m-%c"
partial_mesh.es_4.app[0].source.packetLength = 50B
partial_mesh.es_4.app[0].source.productionInterval = 1000us
partial_mesh.es_3.app[0].typename = "UdpSinkApp"
partial_mesh.es_3.app[0].display-name = "TSN"
partial_mesh.es_3.app[0].io.localPort = 5002

partial_mesh.es_4.app[1].typename = "UdpSourceApp"
partial_mesh.es_4.app[1].display-name = "TSN"
partial_mesh.es_4.app[1].io.destAddress = "es_3"
partial_mesh.es_4.app[1].io.destPort = 5003
partial_mesh.es_4.app[1].source.packetNameFormat = "%M-%m-%c"
partial_mesh.es_4.app[1].source.packetLength = 50B
partial_mesh.es_4.app[1].source.productionInterval = 200us
partial_mesh.es_3.app[1].typename = "UdpSinkApp"
partial_mesh.es_3.app[1].display-name = "TSN"
partial_mesh.es_3.app[1].io.localPort = 5003

partial_mesh.es_1.app[0].typename = "UdpSourceApp"
partial_mesh.es_1.app[0].display-name = "TSN"
partial_mesh.es_1.app[0].io.destAddress = "es_4"
partial_mesh.es_1.app[0].io.destPort = 5004
partial_mesh.es_1.app[0].source.packetNameFormat = "%M-%m-%c"
partial_mesh.es_1.app[0].source.packetLength = 80B
partial_mesh.es_1.app[0].source.productionInterval = 200us
partial_mesh.es_4.app[2].typename = "UdpSinkApp"
partial_mesh.es_4.app[2].display-name = "TSN"
partial_mesh.es_4.app[2].io.localPort = 5004

partial_mesh.es_3.app[2].typename = "UdpSourceApp"
partial_mesh.es_3.app[2].display-name = "TSN"
partial_mesh.es_3.app[2].io.destAddress = "es_6"
partial_mesh.es_3.app[2].io.destPort = 5005
partial_mesh.es_3.app[2].source.packetNameFormat = "%M-%m-%c"
partial_mesh.es_3.app[2].source.packetLength = 70B
partial_mesh.es_3.app[2].source.productionInterval = 400us
partial_mesh.es_6.app[2].typename = "UdpSinkApp"
partial_mesh.es_6.app[2].display-name = "TSN"
partial_mesh.es_6.app[2].io.localPort = 5005

partial_mesh.es_1.app[1].typename = "UdpSourceApp"
partial_mesh.es_1.app[1].display-name = "TSN"
partial_mesh.es_1.app[1].io.destAddress = "es_3"
partial_mesh.es_1.app[1].io.destPort = 5006
partial_mesh.es_1.app[1].source.packetNameFormat = "%M-%m-%c"
partial_mesh.es_1.app[1].source.packetLength = 40B
partial_mesh.es_1.app[1].source.productionInterval = 200us
partial_mesh.es_3.app[3].typename = "UdpSinkApp"
partial_mesh.es_3.app[3].display-name = "TSN"
partial_mesh.es_3.app[3].io.localPort = 5006

partial_mesh.es_3.app[4].typename = "UdpSourceApp"
partial_mesh.es_3.app[4].display-name = "TSN"
partial_mesh.es_3.app[4].io.destAddress = "es_2"
partial_mesh.es_3.app[4].io.destPort = 5007
partial_mesh.es_3.app[4].source.packetNameFormat = "%M-%m-%c"
partial_mesh.es_3.app[4].source.packetLength = 50B
partial_mesh.es_3.app[4].source.productionInterval = 500us
partial_mesh.es_2.app[1].typename = "UdpSinkApp"
partial_mesh.es_2.app[1].display-name = "TSN"
partial_mesh.es_2.app[1].io.localPort = 5007

partial_mesh.es_2.app[2].typename = "UdpSourceApp"
partial_mesh.es_2.app[2].display-name = "TSN"
partial_mesh.es_2.app[2].io.destAddress = "es_5"
partial_mesh.es_2.app[2].io.destPort = 5008
partial_mesh.es_2.app[2].source.packetNameFormat = "%M-%m-%c"
partial_mesh.es_2.app[2].source.packetLength = 90B
partial_mesh.es_2.app[2].source.productionInterval = 500us
partial_mesh.es_5.app[1].typename = "UdpSinkApp"
partial_mesh.es_5.app[1].display-name = "TSN"
partial_mesh.es_5.app[1].io.localPort = 5008

partial_mesh.es_3.app[5].typename = "UdpSourceApp"
partial_mesh.es_3.app[5].display-name = "TSN"
partial_mesh.es_3.app[5].io.destAddress = "es_6"
partial_mesh.es_3.app[5].io.destPort = 5009
partial_mesh.es_3.app[5].source.packetNameFormat = "%M-%m-%c"
partial_mesh.es_3.app[5].source.packetLength = 90B
partial_mesh.es_3.app[5].source.productionInterval = 1000us
partial_mesh.es_6.app[3].typename = "UdpSinkApp"
partial_mesh.es_6.app[3].display-name = "TSN"
partial_mesh.es_6.app[3].io.localPort = 5009

partial_mesh.es_4.app[3].typename = "UdpSourceApp"
partial_mesh.es_4.app[3].display-name = "TSN"
partial_mesh.es_4.app[3].io.destAddress = "es_2"
partial_mesh.es_4.app[3].io.destPort = 5010
partial_mesh.es_4.app[3].source.packetNameFormat = "%M-%m-%c"
partial_mesh.es_4.app[3].source.packetLength = 30B
partial_mesh.es_4.app[3].source.productionInterval = 200us
partial_mesh.es_2.app[3].typename = "UdpSinkApp"
partial_mesh.es_2.app[3].display-name = "TSN"
partial_mesh.es_2.app[3].io.localPort = 5010

partial_mesh.es_2.app[4].typename = "UdpSourceApp"
partial_mesh.es_2.app[4].display-name = "TSN"
partial_mesh.es_2.app[4].io.destAddress = "es_1"
partial_mesh.es_2.app[4].io.destPort = 5011
partial_mesh.es_2.app[4].source.packetNameFormat = "%M-%m-%c"
partial_mesh.es_2.app[4].source.packetLength = 60B
partial_mesh.es_2.app[4].source.productionInterval = 100us
partial_mesh.es_1.app[2].typename = "UdpSinkApp"
partial_mesh.es_1.app[2].display-name = "TSN"
partial_mesh.es_1.app[2].io.localPort = 5011

partial_mesh.es_6.app[4].typename = "UdpSourceApp"
partial_mesh.es_6.app[4].display-name = "TSN"
partial_mesh.es_6.app[4].io.destAddress = "es_4"
partial_mesh.es_6.app[4].io.destPort = 5012
partial_mesh.es_6.app[4].source.packetNameFormat = "%M-%m-%c"
partial_mesh.es_6.app[4].source.packetLength = 50B
partial_mesh.es_6.app[4].source.productionInterval = 200us
partial_mesh.es_4.app[4].typename = "UdpSinkApp"
partial_mesh.es_4.app[4].display-name = "TSN"
partial_mesh.es_4.app[4].io.localPort = 5012

partial_mesh.es_2.app[5].typename = "UdpSourceApp"
partial_mesh.es_2.app[5].display-name = "TSN"
partial_mesh.es_2.app[5].io.destAddress = "es_1"
partial_mesh.es_2.app[5].io.destPort = 5013
partial_mesh.es_2.app[5].source.packetNameFormat = "%M-%m-%c"
partial_mesh.es_2.app[5].source.packetLength = 60B
partial_mesh.es_2.app[5].source.productionInterval = 500us
partial_mesh.es_1.app[3].typename = "UdpSinkApp"
partial_mesh.es_1.app[3].display-name = "TSN"
partial_mesh.es_1.app[3].io.localPort = 5013

partial_mesh.es_3.app[6].typename = "UdpSourceApp"
partial_mesh.es_3.app[6].display-name = "TSN"
partial_mesh.es_3.app[6].io.destAddress = "es_2"
partial_mesh.es_3.app[6].io.destPort = 5014
partial_mesh.es_3.app[6].source.packetNameFormat = "%M-%m-%c"
partial_mesh.es_3.app[6].source.packetLength = 100B
partial_mesh.es_3.app[6].source.productionInterval = 400us
partial_mesh.es_2.app[6].typename = "UdpSinkApp"
partial_mesh.es_2.app[6].display-name = "TSN"
partial_mesh.es_2.app[6].io.localPort = 5014

partial_mesh.es_3.app[7].typename = "UdpSourceApp"
partial_mesh.es_3.app[7].display-name = "TSN"
partial_mesh.es_3.app[7].io.destAddress = "es_5"
partial_mesh.es_3.app[7].io.destPort = 5015
partial_mesh.es_3.app[7].source.packetNameFormat = "%M-%m-%c"
partial_mesh.es_3.app[7].source.packetLength = 80B
partial_mesh.es_3.app[7].source.productionInterval = 400us
partial_mesh.es_5.app[2].typename = "UdpSinkApp"
partial_mesh.es_5.app[2].display-name = "TSN"
partial_mesh.es_5.app[2].io.localPort = 5015

partial_mesh.es_6.app[5].typename = "UdpSourceApp"
partial_mesh.es_6.app[5].display-name = "TSN"
partial_mesh.es_6.app[5].io.destAddress = "es_2"
partial_mesh.es_6.app[5].io.destPort = 5016
partial_mesh.es_6.app[5].source.packetNameFormat = "%M-%m-%c"
partial_mesh.es_6.app[5].source.packetLength = 30B
partial_mesh.es_6.app[5].source.productionInterval = 100us
partial_mesh.es_2.app[7].typename = "UdpSinkApp"
partial_mesh.es_2.app[7].display-name = "TSN"
partial_mesh.es_2.app[7].io.localPort = 5016

partial_mesh.es_1.app[4].typename = "UdpSourceApp"
partial_mesh.es_1.app[4].display-name = "TSN"
partial_mesh.es_1.app[4].io.destAddress = "es_3"
partial_mesh.es_1.app[4].io.destPort = 5017
partial_mesh.es_1.app[4].source.packetNameFormat = "%M-%m-%c"
partial_mesh.es_1.app[4].source.packetLength = 50B
partial_mesh.es_1.app[4].source.productionInterval = 400us
partial_mesh.es_3.app[8].typename = "UdpSinkApp"
partial_mesh.es_3.app[8].display-name = "TSN"
partial_mesh.es_3.app[8].io.localPort = 5017

partial_mesh.es_3.app[9].typename = "UdpSourceApp"
partial_mesh.es_3.app[9].display-name = "TSN"
partial_mesh.es_3.app[9].io.destAddress = "es_4"
partial_mesh.es_3.app[9].io.destPort = 5018
partial_mesh.es_3.app[9].source.packetNameFormat = "%M-%m-%c"
partial_mesh.es_3.app[9].source.packetLength = 60B
partial_mesh.es_3.app[9].source.productionInterval = 1000us
partial_mesh.es_4.app[5].typename = "UdpSinkApp"
partial_mesh.es_4.app[5].display-name = "TSN"
partial_mesh.es_4.app[5].io.localPort = 5018

partial_mesh.es_1.app[5].typename = "UdpSourceApp"
partial_mesh.es_1.app[5].display-name = "TSN"
partial_mesh.es_1.app[5].io.destAddress = "es_5"
partial_mesh.es_1.app[5].io.destPort = 5019
partial_mesh.es_1.app[5].source.packetNameFormat = "%M-%m-%c"
partial_mesh.es_1.app[5].source.packetLength = 30B
partial_mesh.es_1.app[5].source.productionInterval = 500us
partial_mesh.es_5.app[3].typename = "UdpSinkApp"
partial_mesh.es_5.app[3].display-name = "TSN"
partial_mesh.es_5.app[3].io.localPort = 5019

partial_mesh.es_6.app[6].typename = "UdpSourceApp"
partial_mesh.es_6.app[6].display-name = "TSN"
partial_mesh.es_6.app[6].io.destAddress = "es_5"
partial_mesh.es_6.app[6].io.destPort = 5020
partial_mesh.es_6.app[6].source.packetNameFormat = "%M-%m-%c"
partial_mesh.es_6.app[6].source.packetLength = 70B
partial_mesh.es_6.app[6].source.productionInterval = 2000us
partial_mesh.es_5.app[4].typename = "UdpSinkApp"
partial_mesh.es_5.app[4].display-name = "TSN"
partial_mesh.es_5.app[4].io.localPort = 5020

partial_mesh.es_1.app[6].typename = "UdpSourceApp"
partial_mesh.es_1.app[6].display-name = "TSN"
partial_mesh.es_1.app[6].io.destAddress = "es_6"
partial_mesh.es_1.app[6].io.destPort = 5021
partial_mesh.es_1.app[6].source.packetNameFormat = "%M-%m-%c"
partial_mesh.es_1.app[6].source.packetLength = 90B
partial_mesh.es_1.app[6].source.productionInterval = 1000us
partial_mesh.es_6.app[7].typename = "UdpSinkApp"
partial_mesh.es_6.app[7].display-name = "TSN"
partial_mesh.es_6.app[7].io.localPort = 5021

partial_mesh.es_5.app[5].typename = "UdpSourceApp"
partial_mesh.es_5.app[5].display-name = "TSN"
partial_mesh.es_5.app[5].io.destAddress = "es_3"
partial_mesh.es_5.app[5].io.destPort = 5022
partial_mesh.es_5.app[5].source.packetNameFormat = "%M-%m-%c"
partial_mesh.es_5.app[5].source.packetLength = 30B
partial_mesh.es_5.app[5].source.productionInterval = 500us
partial_mesh.es_3.app[10].typename = "UdpSinkApp"
partial_mesh.es_3.app[10].display-name = "TSN"
partial_mesh.es_3.app[10].io.localPort = 5022

partial_mesh.es_2.app[8].typename = "UdpSourceApp"
partial_mesh.es_2.app[8].display-name = "TSN"
partial_mesh.es_2.app[8].io.destAddress = "es_4"
partial_mesh.es_2.app[8].io.destPort = 5023
partial_mesh.es_2.app[8].source.packetNameFormat = "%M-%m-%c"
partial_mesh.es_2.app[8].source.packetLength = 30B
partial_mesh.es_2.app[8].source.productionInterval = 400us
partial_mesh.es_4.app[6].typename = "UdpSinkApp"
partial_mesh.es_4.app[6].display-name = "TSN"
partial_mesh.es_4.app[6].io.localPort = 5023

partial_mesh.es_6.app[8].typename = "UdpSourceApp"
partial_mesh.es_6.app[8].display-name = "TSN"
partial_mesh.es_6.app[8].io.destAddress = "es_3"
partial_mesh.es_6.app[8].io.destPort = 5024
partial_mesh.es_6.app[8].source.packetNameFormat = "%M-%m-%c"
partial_mesh.es_6.app[8].source.packetLength = 50B
partial_mesh.es_6.app[8].source.productionInterval = 500us
partial_mesh.es_3.app[11].typename = "UdpSinkApp"
partial_mesh.es_3.app[11].display-name = "TSN"
partial_mesh.es_3.app[11].io.localPort = 5024

partial_mesh.es_4.app[7].typename = "UdpSourceApp"
partial_mesh.es_4.app[7].display-name = "TSN"
partial_mesh.es_4.app[7].io.destAddress = "es_3"
partial_mesh.es_4.app[7].io.destPort = 5025
partial_mesh.es_4.app[7].source.packetNameFormat = "%M-%m-%c"
partial_mesh.es_4.app[7].source.packetLength = 70B
partial_mesh.es_4.app[7].source.productionInterval = 400us
partial_mesh.es_3.app[12].typename = "UdpSinkApp"
partial_mesh.es_3.app[12].display-name = "TSN"
partial_mesh.es_3.app[12].io.localPort = 5025

partial_mesh.es_2.app[9].typename = "UdpSourceApp"
partial_mesh.es_2.app[9].display-name = "TSN"
partial_mesh.es_2.app[9].io.destAddress = "es_3"
partial_mesh.es_2.app[9].io.destPort = 5026
partial_mesh.es_2.app[9].source.packetNameFormat = "%M-%m-%c"
partial_mesh.es_2.app[9].source.packetLength = 70B
partial_mesh.es_2.app[9].source.productionInterval = 200us
partial_mesh.es_3.app[13].typename = "UdpSinkApp"
partial_mesh.es_3.app[13].display-name = "TSN"
partial_mesh.es_3.app[13].io.localPort = 5026

partial_mesh.es_4.app[8].typename = "UdpSourceApp"
partial_mesh.es_4.app[8].display-name = "TSN"
partial_mesh.es_4.app[8].io.destAddress = "es_6"
partial_mesh.es_4.app[8].io.destPort = 5027
partial_mesh.es_4.app[8].source.packetNameFormat = "%M-%m-%c"
partial_mesh.es_4.app[8].source.packetLength = 40B
partial_mesh.es_4.app[8].source.productionInterval = 200us
partial_mesh.es_6.app[9].typename = "UdpSinkApp"
partial_mesh.es_6.app[9].display-name = "TSN"
partial_mesh.es_6.app[9].io.localPort = 5027

partial_mesh.es_1.app[7].typename = "UdpSourceApp"
partial_mesh.es_1.app[7].display-name = "TSN"
partial_mesh.es_1.app[7].io.destAddress = "es_2"
partial_mesh.es_1.app[7].io.destPort = 5028
partial_mesh.es_1.app[7].source.packetNameFormat = "%M-%m-%c"
partial_mesh.es_1.app[7].source.packetLength = 100B
partial_mesh.es_1.app[7].source.productionInterval = 2000us
partial_mesh.es_2.app[10].typename = "UdpSinkApp"
partial_mesh.es_2.app[10].display-name = "TSN"
partial_mesh.es_2.app[10].io.localPort = 5028

partial_mesh.es_1.app[8].typename = "UdpSourceApp"
partial_mesh.es_1.app[8].display-name = "TSN"
partial_mesh.es_1.app[8].io.destAddress = "es_3"
partial_mesh.es_1.app[8].io.destPort = 5029
partial_mesh.es_1.app[8].source.packetNameFormat = "%M-%m-%c"
partial_mesh.es_1.app[8].source.packetLength = 70B
partial_mesh.es_1.app[8].source.productionInterval = 400us
partial_mesh.es_3.app[14].typename = "UdpSinkApp"
partial_mesh.es_3.app[14].display-name = "TSN"
partial_mesh.es_3.app[14].io.localPort = 5029

partial_mesh.es_6.app[10].typename = "UdpSourceApp"
partial_mesh.es_6.app[10].display-name = "TSN"
partial_mesh.es_6.app[10].io.destAddress = "es_4"
partial_mesh.es_6.app[10].io.destPort = 5030
partial_mesh.es_6.app[10].source.packetNameFormat = "%M-%m-%c"
partial_mesh.es_6.app[10].source.packetLength = 90B
partial_mesh.es_6.app[10].source.productionInterval = 2000us
partial_mesh.es_4.app[9].typename = "UdpSinkApp"
partial_mesh.es_4.app[9].display-name = "TSN"
partial_mesh.es_4.app[9].io.localPort = 5030

partial_mesh.es_4.app[10].typename = "UdpSourceApp"
partial_mesh.es_4.app[10].display-name = "TSN"
partial_mesh.es_4.app[10].io.destAddress = "es_2"
partial_mesh.es_4.app[10].io.destPort = 5031
partial_mesh.es_4.app[10].source.packetNameFormat = "%M-%m-%c"
partial_mesh.es_4.app[10].source.packetLength = 70B
partial_mesh.es_4.app[10].source.productionInterval = 200us
partial_mesh.es_2.app[11].typename = "UdpSinkApp"
partial_mesh.es_2.app[11].display-name = "TSN"
partial_mesh.es_2.app[11].io.localPort = 5031

partial_mesh.es_6.app[11].typename = "UdpSourceApp"
partial_mesh.es_6.app[11].display-name = "TSN"
partial_mesh.es_6.app[11].io.destAddress = "es_5"
partial_mesh.es_6.app[11].io.destPort = 5032
partial_mesh.es_6.app[11].source.packetNameFormat = "%M-%m-%c"
partial_mesh.es_6.app[11].source.packetLength = 70B
partial_mesh.es_6.app[11].source.productionInterval = 400us
partial_mesh.es_5.app[6].typename = "UdpSinkApp"
partial_mesh.es_5.app[6].display-name = "TSN"
partial_mesh.es_5.app[6].io.localPort = 5032

partial_mesh.es_5.app[7].typename = "UdpSourceApp"
partial_mesh.es_5.app[7].display-name = "TSN"
partial_mesh.es_5.app[7].io.destAddress = "es_4"
partial_mesh.es_5.app[7].io.destPort = 5033
partial_mesh.es_5.app[7].source.packetNameFormat = "%M-%m-%c"
partial_mesh.es_5.app[7].source.packetLength = 60B
partial_mesh.es_5.app[7].source.productionInterval = 500us
partial_mesh.es_4.app[11].typename = "UdpSinkApp"
partial_mesh.es_4.app[11].display-name = "TSN"
partial_mesh.es_4.app[11].io.localPort = 5033

partial_mesh.es_5.app[8].typename = "UdpSourceApp"
partial_mesh.es_5.app[8].display-name = "TSN"
partial_mesh.es_5.app[8].io.destAddress = "es_3"
partial_mesh.es_5.app[8].io.destPort = 5034
partial_mesh.es_5.app[8].source.packetNameFormat = "%M-%m-%c"
partial_mesh.es_5.app[8].source.packetLength = 50B
partial_mesh.es_5.app[8].source.productionInterval = 200us
partial_mesh.es_3.app[15].typename = "UdpSinkApp"
partial_mesh.es_3.app[15].display-name = "TSN"
partial_mesh.es_3.app[15].io.localPort = 5034

partial_mesh.es_3.app[16].typename = "UdpSourceApp"
partial_mesh.es_3.app[16].display-name = "TSN"
partial_mesh.es_3.app[16].io.destAddress = "es_2"
partial_mesh.es_3.app[16].io.destPort = 5035
partial_mesh.es_3.app[16].source.packetNameFormat = "%M-%m-%c"
partial_mesh.es_3.app[16].source.packetLength = 50B
partial_mesh.es_3.app[16].source.productionInterval = 100us
partial_mesh.es_2.app[12].typename = "UdpSinkApp"
partial_mesh.es_2.app[12].display-name = "TSN"
partial_mesh.es_2.app[12].io.localPort = 5035

partial_mesh.es_6.app[12].typename = "UdpSourceApp"
partial_mesh.es_6.app[12].display-name = "TSN"
partial_mesh.es_6.app[12].io.destAddress = "es_1"
partial_mesh.es_6.app[12].io.destPort = 5036
partial_mesh.es_6.app[12].source.packetNameFormat = "%M-%m-%c"
partial_mesh.es_6.app[12].source.packetLength = 40B
partial_mesh.es_6.app[12].source.productionInterval = 2000us
partial_mesh.es_1.app[9].typename = "UdpSinkApp"
partial_mesh.es_1.app[9].display-name = "TSN"
partial_mesh.es_1.app[9].io.localPort = 5036

partial_mesh.es_6.app[13].typename = "UdpSourceApp"
partial_mesh.es_6.app[13].display-name = "TSN"
partial_mesh.es_6.app[13].io.destAddress = "es_4"
partial_mesh.es_6.app[13].io.destPort = 5037
partial_mesh.es_6.app[13].source.packetNameFormat = "%M-%m-%c"
partial_mesh.es_6.app[13].source.packetLength = 50B
partial_mesh.es_6.app[13].source.productionInterval = 100us
partial_mesh.es_4.app[12].typename = "UdpSinkApp"
partial_mesh.es_4.app[12].display-name = "TSN"
partial_mesh.es_4.app[12].io.localPort = 5037

partial_mesh.es_5.app[9].typename = "UdpSourceApp"
partial_mesh.es_5.app[9].display-name = "TSN"
partial_mesh.es_5.app[9].io.destAddress = "es_2"
partial_mesh.es_5.app[9].io.destPort = 5038
partial_mesh.es_5.app[9].source.packetNameFormat = "%M-%m-%c"
partial_mesh.es_5.app[9].source.packetLength = 40B
partial_mesh.es_5.app[9].source.productionInterval = 1000us
partial_mesh.es_2.app[13].typename = "UdpSinkApp"
partial_mesh.es_2.app[13].display-name = "TSN"
partial_mesh.es_2.app[13].io.localPort = 5038

partial_mesh.es_1.app[10].typename = "UdpSourceApp"
partial_mesh.es_1.app[10].display-name = "TSN"
partial_mesh.es_1.app[10].io.destAddress = "es_5"
partial_mesh.es_1.app[10].io.destPort = 5039
partial_mesh.es_1.app[10].source.packetNameFormat = "%M-%m-%c"
partial_mesh.es_1.app[10].source.packetLength = 30B
partial_mesh.es_1.app[10].source.productionInterval = 2000us
partial_mesh.es_5.app[10].typename = "UdpSinkApp"
partial_mesh.es_5.app[10].display-name = "TSN"
partial_mesh.es_5.app[10].io.localPort = 5039

partial_mesh.es_5.app[11].typename = "UdpSourceApp"
partial_mesh.es_5.app[11].display-name = "AVB"
partial_mesh.es_5.app[11].io.destAddress = "es_6"
partial_mesh.es_5.app[11].io.destPort = 5040
partial_mesh.es_5.app[11].source.packetNameFormat = "%M-%m-%c"
partial_mesh.es_5.app[11].source.packetLength = 1200B
partial_mesh.es_5.app[11].source.productionInterval = 125us
partial_mesh.es_6.app[14].typename = "UdpSinkApp"
partial_mesh.es_6.app[14].display-name = "AVB"
partial_mesh.es_6.app[14].io.localPort = 5040

partial_mesh.es_6.app[15].typename = "UdpSourceApp"
partial_mesh.es_6.app[15].display-name = "AVB"
partial_mesh.es_6.app[15].io.destAddress = "es_3"
partial_mesh.es_6.app[15].io.destPort = 5041
partial_mesh.es_6.app[15].source.packetNameFormat = "%M-%m-%c"
partial_mesh.es_6.app[15].source.packetLength = 1500B
partial_mesh.es_6.app[15].source.productionInterval = 125us
partial_mesh.es_3.app[17].typename = "UdpSinkApp"
partial_mesh.es_3.app[17].display-name = "AVB"
partial_mesh.es_3.app[17].io.localPort = 5041

partial_mesh.es_2.app[14].typename = "UdpSourceApp"
partial_mesh.es_2.app[14].display-name = "AVB"
partial_mesh.es_2.app[14].io.destAddress = "es_6"
partial_mesh.es_2.app[14].io.destPort = 5042
partial_mesh.es_2.app[14].source.packetNameFormat = "%M-%m-%c"
partial_mesh.es_2.app[14].source.packetLength = 1000B
partial_mesh.es_2.app[14].source.productionInterval = 125us
partial_mesh.es_6.app[16].typename = "UdpSinkApp"
partial_mesh.es_6.app[16].display-name = "AVB"
partial_mesh.es_6.app[16].io.localPort = 5042

partial_mesh.es_3.app[18].typename = "UdpSourceApp"
partial_mesh.es_3.app[18].display-name = "AVB"
partial_mesh.es_3.app[18].io.destAddress = "es_1"
partial_mesh.es_3.app[18].io.destPort = 5043
partial_mesh.es_3.app[18].source.packetNameFormat = "%M-%m-%c"
partial_mesh.es_3.app[18].source.packetLength = 1100B
partial_mesh.es_3.app[18].source.productionInterval = 125us
partial_mesh.es_1.app[11].typename = "UdpSinkApp"
partial_mesh.es_1.app[11].display-name = "AVB"
partial_mesh.es_1.app[11].io.localPort = 5043

partial_mesh.es_5.app[12].typename = "UdpSourceApp"
partial_mesh.es_5.app[12].display-name = "AVB"
partial_mesh.es_5.app[12].io.destAddress = "es_4"
partial_mesh.es_5.app[12].io.destPort = 5044
partial_mesh.es_5.app[12].source.packetNameFormat = "%M-%m-%c"
partial_mesh.es_5.app[12].source.packetLength = 1100B
partial_mesh.es_5.app[12].source.productionInterval = 125us
partial_mesh.es_4.app[13].typename = "UdpSinkApp"
partial_mesh.es_4.app[13].display-name = "AVB"
partial_mesh.es_4.app[13].io.localPort = 5044

partial_mesh.es_4.app[14].typename = "UdpSourceApp"
partial_mesh.es_4.app[14].display-name = "AVB"
partial_mesh.es_4.app[14].io.destAddress = "es_5"
partial_mesh.es_4.app[14].io.destPort = 5045
partial_mesh.es_4.app[14].source.packetNameFormat = "%M-%m-%c"
partial_mesh.es_4.app[14].source.packetLength = 1000B
partial_mesh.es_4.app[14].source.productionInterval = 125us
partial_mesh.es_5.app[13].typename = "UdpSinkApp"
partial_mesh.es_5.app[13].display-name = "AVB"
partial_mesh.es_5.app[13].io.localPort = 5045

partial_mesh.es_6.app[17].typename = "UdpSourceApp"
partial_mesh.es_6.app[17].display-name = "AVB"
partial_mesh.es_6.app[17].io.destAddress = "es_1"
partial_mesh.es_6.app[17].io.destPort = 5046
partial_mesh.es_6.app[17].source.packetNameFormat = "%M-%m-%c"
partial_mesh.es_6.app[17].source.packetLength = 1100B
partial_mesh.es_6.app[17].source.productionInterval = 125us
partial_mesh.es_1.app[12].typename = "UdpSinkApp"
partial_mesh.es_1.app[12].display-name = "AVB"
partial_mesh.es_1.app[12].io.localPort = 5046

partial_mesh.es_4.app[15].typename = "UdpSourceApp"
partial_mesh.es_4.app[15].display-name = "AVB"
partial_mesh.es_4.app[15].io.destAddress = "es_2"
partial_mesh.es_4.app[15].io.destPort = 5047
partial_mesh.es_4.app[15].source.packetNameFormat = "%M-%m-%c"
partial_mesh.es_4.app[15].source.packetLength = 1400B
partial_mesh.es_4.app[15].source.productionInterval = 125us
partial_mesh.es_2.app[15].typename = "UdpSinkApp"
partial_mesh.es_2.app[15].display-name = "AVB"
partial_mesh.es_2.app[15].io.localPort = 5047

partial_mesh.es_1.app[13].typename = "UdpSourceApp"
partial_mesh.es_1.app[13].display-name = "AVB"
partial_mesh.es_1.app[13].io.destAddress = "es_6"
partial_mesh.es_1.app[13].io.destPort = 5048
partial_mesh.es_1.app[13].source.packetNameFormat = "%M-%m-%c"
partial_mesh.es_1.app[13].source.packetLength = 1500B
partial_mesh.es_1.app[13].source.productionInterval = 125us
partial_mesh.es_6.app[18].typename = "UdpSinkApp"
partial_mesh.es_6.app[18].display-name = "AVB"
partial_mesh.es_6.app[18].io.localPort = 5048

partial_mesh.es_3.app[19].typename = "UdpSourceApp"
partial_mesh.es_3.app[19].display-name = "AVB"
partial_mesh.es_3.app[19].io.destAddress = "es_2"
partial_mesh.es_3.app[19].io.destPort = 5049
partial_mesh.es_3.app[19].source.packetNameFormat = "%M-%m-%c"
partial_mesh.es_3.app[19].source.packetLength = 1000B
partial_mesh.es_3.app[19].source.productionInterval = 125us
partial_mesh.es_2.app[16].typename = "UdpSinkApp"
partial_mesh.es_2.app[16].display-name = "AVB"
partial_mesh.es_2.app[16].io.localPort = 5049

partial_mesh.es_2.app[17].typename = "UdpSourceApp"
partial_mesh.es_2.app[17].display-name = "AVB"
partial_mesh.es_2.app[17].io.destAddress = "es_1"
partial_mesh.es_2.app[17].io.destPort = 5050
partial_mesh.es_2.app[17].source.packetNameFormat = "%M-%m-%c"
partial_mesh.es_2.app[17].source.packetLength = 1000B
partial_mesh.es_2.app[17].source.productionInterval = 125us
partial_mesh.es_1.app[14].typename = "UdpSinkApp"
partial_mesh.es_1.app[14].display-name = "AVB"
partial_mesh.es_1.app[14].io.localPort = 5050

partial_mesh.es_4.app[16].typename = "UdpSourceApp"
partial_mesh.es_4.app[16].display-name = "AVB"
partial_mesh.es_4.app[16].io.destAddress = "es_2"
partial_mesh.es_4.app[16].io.destPort = 5051
partial_mesh.es_4.app[16].source.packetNameFormat = "%M-%m-%c"
partial_mesh.es_4.app[16].source.packetLength = 1400B
partial_mesh.es_4.app[16].source.productionInterval = 125us
partial_mesh.es_2.app[18].typename = "UdpSinkApp"
partial_mesh.es_2.app[18].display-name = "AVB"
partial_mesh.es_2.app[18].io.localPort = 5051

partial_mesh.es_3.app[20].typename = "UdpSourceApp"
partial_mesh.es_3.app[20].display-name = "AVB"
partial_mesh.es_3.app[20].io.destAddress = "es_2"
partial_mesh.es_3.app[20].io.destPort = 5052
partial_mesh.es_3.app[20].source.packetNameFormat = "%M-%m-%c"
partial_mesh.es_3.app[20].source.packetLength = 1200B
partial_mesh.es_3.app[20].source.productionInterval = 125us
partial_mesh.es_2.app[19].typename = "UdpSinkApp"
partial_mesh.es_2.app[19].display-name = "AVB"
partial_mesh.es_2.app[19].io.localPort = 5052

partial_mesh.es_1.app[15].typename = "UdpSourceApp"
partial_mesh.es_1.app[15].display-name = "AVB"
partial_mesh.es_1.app[15].io.destAddress = "es_4"
partial_mesh.es_1.app[15].io.destPort = 5053
partial_mesh.es_1.app[15].source.packetNameFormat = "%M-%m-%c"
partial_mesh.es_1.app[15].source.packetLength = 1200B
partial_mesh.es_1.app[15].source.productionInterval = 125us
partial_mesh.es_4.app[17].typename = "UdpSinkApp"
partial_mesh.es_4.app[17].display-name = "AVB"
partial_mesh.es_4.app[17].io.localPort = 5053

partial_mesh.es_4.app[18].typename = "UdpSourceApp"
partial_mesh.es_4.app[18].display-name = "AVB"
partial_mesh.es_4.app[18].io.destAddress = "es_6"
partial_mesh.es_4.app[18].io.destPort = 5054
partial_mesh.es_4.app[18].source.packetNameFormat = "%M-%m-%c"
partial_mesh.es_4.app[18].source.packetLength = 1500B
partial_mesh.es_4.app[18].source.productionInterval = 125us
partial_mesh.es_6.app[19].typename = "UdpSinkApp"
partial_mesh.es_6.app[19].display-name = "AVB"
partial_mesh.es_6.app[19].io.localPort = 5054

partial_mesh.es_5.app[14].typename = "UdpSourceApp"
partial_mesh.es_5.app[14].display-name = "AVB"
partial_mesh.es_5.app[14].io.destAddress = "es_1"
partial_mesh.es_5.app[14].io.destPort = 5055
partial_mesh.es_5.app[14].source.packetNameFormat = "%M-%m-%c"
partial_mesh.es_5.app[14].source.packetLength = 1400B
partial_mesh.es_5.app[14].source.productionInterval = 125us
partial_mesh.es_1.app[16].typename = "UdpSinkApp"
partial_mesh.es_1.app[16].display-name = "AVB"
partial_mesh.es_1.app[16].io.localPort = 5055

partial_mesh.es_6.app[20].typename = "UdpSourceApp"
partial_mesh.es_6.app[20].display-name = "AVB"
partial_mesh.es_6.app[20].io.destAddress = "es_5"
partial_mesh.es_6.app[20].io.destPort = 5056
partial_mesh.es_6.app[20].source.packetNameFormat = "%M-%m-%c"
partial_mesh.es_6.app[20].source.packetLength = 1100B
partial_mesh.es_6.app[20].source.productionInterval = 125us